CEND
BEGIN BULK
MAT1    1       71700000000.0000000.000000        0.330000        
PROD    1       1       0.007500        
CROD    1       1       32      185     
CROD    2       1       185     226     
CROD    3       1       226     266     
CROD    4       1       266     306     
CROD    5       1       306     346     
CROD    6       1       346     385     
CROD    7       1       385     424     
CROD    8       1       424     463     
CROD    9       1       463     501     
CROD    10      1       501     539     
CROD    11      1       539     577     
CROD    12      1       577     614     
CROD    13      1       614     651     
CROD    14      1       651     688     
CROD    15      1       688     724     
CROD    16      1       724     760     
CROD    17      1       760     796     
CROD    18      1       796     831     
CROD    19      1       831     866     
CROD    20      1       866     900     
$ ... 5191 like lines cut
ENDDATA
