CEND
BEGIN BULK
MAT1    2       73100000000.0000000.000000        0.330000        
PROD    1       1       0.007500        
CROD    1       1       2522    2675    
CROD    2       1       2675    2716    
CROD    3       1       2716    2756    
CROD    4       1       2756    2796    
CROD    5       1       2796    2836    
CROD    6       1       2836    2875    
CROD    7       1       2875    2914    
CROD    8       1       2914    2953    
CROD    9       1       2953    2991    
CROD    10      1       2991    3029    
CROD    11      1       3029    3067    
CROD    12      1       3067    3104    
CROD    13      1       3104    3141    
CROD    14      1       3141    3178    
CROD    15      1       3178    3214    
CROD    16      1       3214    3250    
CROD    17      1       3250    3286    
CROD    18      1       3286    3321    
CROD    19      1       3321    3356    
CROD    20      1       3356    3390    
$ ... 5191 like lines cut
ENDDATA
