CEND
BEGIN BULK
$ Material Record : mat1.3
$ Description of Material :
MAT1*   3       7.17e+10        7.17e+10        2.695e+10       
*       .33             2.81e-09        
PSHELL  1       1       0.005000        
CQUAD4  1       1       183     2673    2714    224     0.0     0.0     
CQUAD4  2       1       224     2714    2754    264     0.0     0.0     
CQUAD4  3       1       264     2754    2794    304     0.0     0.0     
CQUAD4  4       1       304     2794    2834    344     0.0     0.0     
CQUAD4  5       1       344     2834    2873    383     0.0     0.0     
CQUAD4  6       1       383     2873    2912    422     0.0     0.0     
CQUAD4  7       1       422     2912    2951    461     0.0     0.0     
CQUAD4  8       1       461     2951    2989    499     0.0     0.0     
CQUAD4  9       1       499     2989    3027    537     0.0     0.0     
CQUAD4  10      1       537     3027    3065    575     0.0     0.0     
CQUAD4  11      1       575     3065    3102    612     0.0     0.0     
CQUAD4  12      1       612     3102    3139    649     0.0     0.0     
CQUAD4  13      1       649     3139    3176    686     0.0     0.0     
CQUAD4  14      1       686     3176    3212    722     0.0     0.0     
CQUAD4  15      1       722     3212    3248    758     0.0     0.0     
CQUAD4  16      1       758     3248    3284    794     0.0     0.0     
CQUAD4  17      1       794     3284    3319    829     0.0     0.0     
CQUAD4  18      1       829     3319    3354    864     0.0     0.0     
CQUAD4  19      1       864     3354    3388    898     0.0     0.0     
CQUAD4  20      1       898     3388    3422    932     0.0     0.0     
$ ... 174 like lines cut
ENDDATA
