CEND
BEGIN BULK
MAT1    2       73100000000.0000000.000000        0.330000        
PSHELL  1       1       0.002000        
CTRIA3  1       1       2491    4918    4908    0.0     0.0     
CTRIA3  2       1       2492    4882    4871    0.0     0.0     
CTRIA3  3       1       2493    4843    4831    0.0     0.0     
CTRIA3  4       1       2494    4801    4788    0.0     0.0     
CTRIA3  5       1       2495    4756    4742    0.0     0.0     
CTRIA3  6       1       2496    4708    4693    0.0     0.0     
CTRIA3  7       1       2497    4657    4641    0.0     0.0     
CTRIA3  8       1       2498    4603    4586    0.0     0.0     
CTRIA3  9       1       2499    4546    4528    0.0     0.0     
CTRIA3  10      1       2500    4486    4467    0.0     0.0     
CTRIA3  11      1       2501    4423    4403    0.0     0.0     
CTRIA3  12      1       2502    4379    4358    0.0     0.0     
CTRIA3  13      1       2503    4310    4288    0.0     0.0     
CTRIA3  14      1       2504    4238    4215    0.0     0.0     
CTRIA3  15      1       2505    4163    4139    0.0     0.0     
CTRIA3  16      1       2506    4085    4060    0.0     0.0     
CTRIA3  17      1       2507    4004    3978    0.0     0.0     
CTRIA3  18      1       2508    3920    3893    0.0     0.0     
CTRIA3  19      1       2509    3833    3805    0.0     0.0     
CTRIA3  20      1       2510    3743    3714    0.0     0.0     
$ ... 17 like lines cut
ENDDATA
