MAT1    1  7.17e+10  0.33   2.81e-09  4.50e+08  2.70e+10
PSHELL  1  1  2.100  1  1.00  0  0  0
