$ MSC.Nastran input file created on January   04, 2024 at 20:40:02 by
$ Patran 2023.1  (Student Edition)
$ Direct Text Input for Nastran System Cell Section
$ Direct Text Input for File Management Section
$ Direct Text Input for Executive Control
$ Linear Static Analysis, Database
SOL 101
CEND
$ Direct Text Input for Global Case Control Data
TITLE = MSC.Nastran job created on 04-Jan-24 at 16:22:35
ECHO = NONE
SUBCASE 1
$ Subcase name : Default
   SUBTITLE=Default
   SPC = 2
   LOAD = 2
   DISPLACEMENT(SORT1,REAL)=ALL
   SPCFORCES(SORT1,REAL)=ALL
   STRESS(SORT1,REAL,VONMISES,BILIN)=ALL
BEGIN BULK
$ Direct Text Input for Bulk Data
HDF5OUT PRCISION 32     CMPRMTHD LZ4     LEVEL   5
PARAM   PRTMAXIM YES
$ Elements and Element Properties for region : shell_1
PSHELL*  1               1               2.0999999       1
*                        1
$ Pset: "shell_1" will be imported as: "pshell.1"
CQUAD4   1       1       1       2       13      12
CQUAD4   2       1       2       3       14      13
CQUAD4   3       1       3       4       15      14
CQUAD4   4       1       4       5       16      15
CQUAD4   5       1       5       6       17      16
CQUAD4   6       1       6       7       18      17
CQUAD4   7       1       7       8       19      18
CQUAD4   8       1       8       9       20      19
CQUAD4   9       1       9       10      21      20
CQUAD4   10      1       10      11      22      21
CQUAD4   11      1       12      13      24      23
CQUAD4   12      1       13      14      25      24
CQUAD4   13      1       14      15      26      25
CQUAD4   14      1       15      16      27      26
CQUAD4   15      1       16      17      28      27
CQUAD4   16      1       17      18      29      28
CQUAD4   17      1       18      19      30      29
CQUAD4   18      1       19      20      31      30
CQUAD4   19      1       20      21      32      31
CQUAD4   20      1       21      22      33      32
$ ... 660 like lines cut
$ Referenced Material Records
$ Material Record : Aluminium
$ Description of Material : Date: 20-Dec-23           Time: 22:31:15
MAT1     1       10000.          .33
$ Nodes of the Entire Model
GRID*    1                               -352.3125       117.4375
*        0.
GRID*    2                              -281.85000610352 117.4375
*        0.
GRID*    3                              -211.38749694824 117.4375
*        0.
GRID*    4                              -140.92498779297 117.4375
*        0.
GRID*    5                              -70.462493896484 117.4375
*        0.
GRID     6               0.     117.4375 0.
GRID*    7                               70.462516784668 117.4375
*        0.
GRID*    8                              140.924987792969 117.4375
*        0.
GRID*    9                              211.387512207031 117.4375
*        0.
GRID*    10                             281.849975585938 117.4375
*        0.
GRID     11             352.3125117.4375 0.
GRID*    12                             -340.56875610352113.522918701172
*       93.9500045776367
GRID*    13                             -272.45501708984113.522918701172
*       93.9500045776367
GRID*    14                             -204.34124755859113.522918701172
*       93.9500045776367
GRID*    15                             -136.22749328613113.522918701172
*       93.9500045776367
GRID*    16                             -68.113746643066113.522918701172
*       93.9500045776367
GRID*    17                              0.             113.522918701172
*       93.9500045776367
GRID*    18                              68.11376953125 113.522918701172
*       93.9500045776367
GRID*    19                             136.227493286133113.522918701172
*       93.9500045776367
GRID*    20                             204.341262817383113.522918701172
*       93.9500045776367
GRID*    21                             272.454986572266113.522918701172
*       93.9500045776367
GRID*    22                             340.568756103516113.522918701172
*       93.9500045776367
GRID*    23                             -328.82501220703109.608329772949
*       187.900009155273
GRID*    24                             -263.05999755859109.608329772949
*       187.900009155273
GRID*    25                             -197.29499816895109.608329772949
*       187.900009155273
GRID*    26                              -131.5299987793109.608329772949
*       187.900009155273
GRID*    27                             -65.764999389648109.608329772949
*       187.900009155273
GRID*    28                              0.             109.608329772949
*       187.900009155273
GRID*    29                             65.7650146484375109.608329772949
*       187.900009155273
GRID*    30                             131.529998779297109.608329772949
*       187.900009155273
GRID*    31                             197.295013427734109.608329772949
*       187.900009155273
$ ... 408 like lines cut
GRID     237            352.3125 0.      0.
GRID*    238                             352.3125       -23.487504959106
*        0.
GRID*    239                             352.3125       -46.974998474121
*        0.
GRID*    240                             352.3125       -70.462516784668
*        0.
GRID*    241                             352.3125       -93.950004577637
*        0.
GRID*    242                             352.3125        -117.4375
*        0.
GRID*    244                            340.56875610351690.8183288574219
*       93.9499969482422
GRID*    245                            340.56875610351668.1137542724609
*       93.9499969482422
GRID*    246                            340.56875610351645.4091644287109
*       93.9499969482422
GRID*    247                            340.56875610351622.7045745849609
*       93.9499969482422
GRID*    248                            340.568756103516 0.
*       93.9499969482422
GRID*    249                            340.568756103516-22.704587936401
*       93.9500045776367
GRID*    250                            340.568756103516-45.409164428711
*       93.9500045776367
GRID*    251                            340.568756103516-68.113761901855
*       93.9500045776367
GRID*    252                            340.568756103516-90.818344116211
*       93.9500045776367
GRID*    253                            340.568756103516-113.52291870117
*       93.9500045776367
GRID*    255                            328.82501220703187.6866607666016
*       187.899993896484
GRID*    256                            328.82501220703165.7649993896484
*       187.899993896484
GRID*    257                            328.82501220703143.8433303833008
*       187.899993896484
GRID*    258                            328.82501220703121.9216594696045
*       187.899993896484
GRID*    259                            328.825012207031 0.
*       187.899993896484
$ ... 158 like lines cut
GRID     347             234.875 0.      939.5
GRID*    348                            234.874984741211 -15.65833568573
*       939.500122070312
GRID*    349                            234.874984741211-31.316661834717
*       939.500122070312
GRID*    350                            234.874984741211-46.975006103516
*       939.500122070312
GRID*    351                            234.874984741211-62.633323669434
*       939.500122070312
GRID*    352                            234.874984741211-78.291656494141
*       939.500122070312
GRID*    354                            223.13124084472759.5016632080078
*       1033.45007324219
GRID*    355                            223.13124084472744.6262474060059
*       1033.45007324219
GRID*    356                            223.13122558593829.7508277893066
*        1033.4501953125
GRID*    357                            223.13122558593814.8754100799561
*        1033.4501953125
GRID*    358                            223.131225585938 0.
*        1033.4501953125
GRID*    359                            223.131225585938-14.875418663025
*        1033.4501953125
GRID*    360                            223.131225585938-29.750827789307
*        1033.4501953125
GRID*    361                            223.131225585938-44.626251220703
*        1033.4501953125
GRID*    362                            223.131225585938-59.501651763916
*        1033.4501953125
GRID*    363                            223.131225585938-74.377067565918
*        1033.4501953125
GRID*    365                            211.38751220703156.3699989318848
*       1127.39990234375
GRID*    366                            211.38751220703142.2775001525879
*       1127.39990234375
GRID*    367                            211.38749694824228.1849956512451
*       1127.40002441406
GRID*    368                            211.38749694824214.0924940109253
*       1127.40002441406
GRID*    369                            211.387496948242 0.
*       1127.40002441406
$ ... 158 like lines cut
GRID     457            117.4375 0.      1879.
GRID*    458                             117.4375       -7.8291673660278
*        1879.
GRID*    459                             117.4375       -15.658330917358
*        1879.
GRID*    460                             117.4375       -23.487503051758
*        1879.
GRID*    461                             117.4375       -31.316659927368
*        1879.
GRID*    462                             117.4375        -39.14582824707
*        1879.
GRID*    464                            281.850006103516 -117.4375
*        0.
GRID*    465                            211.387496948242 -117.4375
*        0.
GRID*    466                            140.924987792969 -117.4375
*        0.
GRID*    467                            70.4624938964844 -117.4375
*        0.
GRID*    468                             0.              -117.4375
*        0.
GRID*    469                            -70.462516784668 -117.4375
*        0.
GRID*    470                            -140.92498779297 -117.4375
*        0.
GRID*    471                            -211.38751220703 -117.4375
*        0.
GRID*    472                            -281.84997558594 -117.4375
*        0.
GRID*    473                             -352.3125       -117.4375
*        0.
GRID*    475                            272.455017089844-113.52291870117
*       93.9499969482422
GRID*    476                            204.341247558594-113.52291870117
*       93.9499969482422
GRID*    477                            136.227493286133-113.52291870117
*       93.9499969482422
GRID*    478                            68.1137466430664-113.52291870117
*       93.9499969482422
GRID*    479                             0.             -113.52291870117
*       93.9499969482422
$ ... 452 like lines cut
GRID     746            -234.875 0.      939.5
GRID*    747                             -234.875       -39.145832061768
*        939.5
GRID*    750                            -223.1312408447337.1885414123535
*       1033.45007324219
GRID*    751                            -223.13124084473 0.
*       1033.45007324219
GRID*    752                            -223.13124084473-37.188541412354
*       1033.45007324219
GRID*    755                            -211.3875122070335.2312507629395
*       1127.39990234375
GRID*    756                            -211.38751220703 0.
*       1127.39990234375
GRID*    757                            -211.38751220703-35.231250762939
*       1127.39990234375
GRID*    760                            -199.6437530517633.2739562988281
*       1221.34997558594
GRID*    761                            -199.64375305176 0.
*       1221.34997558594
GRID*    762                            -199.64375305176-33.273956298828
*       1221.34997558594
GRID*    765                            -187.9000091552731.3166656494141
*       1315.29992675781
GRID*    766                            -187.90000915527 0.
*       1315.29992675781
GRID*    767                            -187.90000915527-31.316665649414
*       1315.29992675781
GRID*    770                             -176.15625     29.3593730926514
*        1409.25
GRID*    771                             -176.15625      0.
*        1409.25
GRID*    772                             -176.15625     -29.359373092651
*        1409.25
GRID*    775                            -164.4125061035227.4020824432373
*       1503.19995117188
GRID*    776                            -164.41250610352 0.
*       1503.19995117188
GRID*    777                            -164.41250610352-27.402082443237
*       1503.19995117188
GRID*    780                            -152.6687622070325.4447917938232
*       1597.14990234375
$ ... 22 like lines cut
$ Loads for Load Case : Default
SPCADD   2       1
LOAD     2       1.      1.      1       1.      3
$ Displacement Constraints of Load Set : empotramiento
SPC1     1       123456  1       THRU    11
SPC1     1       123456  233     THRU    242
SPC1     1       123456  464     THRU    473
SPC1     1       123456  695     696     697
$ Pressure Loads of Load Set : Pression1
PLOAD4*  1               1               -.025           -.025
*        -.0249375       -.0249375       THRU            10
PLOAD4*  1               11              -.0249375       -.0249375
*        -.02475         -.02475         THRU            20
PLOAD4*  1               21              -.02475         -.02475
*        -.0244375       -.0244375       THRU            30
PLOAD4*  1               31              -.0244375       -.0244375
*        -.024           -.024           THRU            40
PLOAD4*  1               41              -.024           -.024
*        -.0234375       -.0234375       THRU            50
PLOAD4*  1               51              -.0234375       -.0234375
*        -.02275         -.02275         THRU            60
PLOAD4*  1               61              -.02275         -.02275
*        -.0219375       -.0219375       THRU            70
PLOAD4*  1               71              -.0219375       -.0219375
*        -.021           -.021           THRU            80
PLOAD4*  1               81              -.021           -.021
*        -.0199375       -.0199375       THRU            90
PLOAD4*  1               91              -.0199375       -.0199375
*        -.01875         -.01875         THRU            100
PLOAD4*  1               101             -.01875         -.01875
*        -.0174375       -.0174375       THRU            110
PLOAD4*  1               111             -.0174375       -.0174375
*        -.016           -.016           THRU            120
PLOAD4*  1               121             -.016           -.016
*        -.0144375       -.0144375       THRU            130
PLOAD4*  1               131             -.0144375       -.0144375
*        -.01275         -.01275         THRU            140
PLOAD4*  1               141             -.01275         -.01275
*        -.0109375       -.0109375       THRU            150
PLOAD4*  1               151             -.0109375       -.0109375
*        -.009           -.009           THRU            160
PLOAD4*  1               161             -.009           -.009
*        -.0069375       -.0069375       THRU            170
PLOAD4*  1               171             -.0069375       -.0069375
*        -.00475         -.00475         THRU            180
PLOAD4*  1               181             -.00475         -.00475
*        -.0024375       -.0024375       THRU            190
PLOAD4*  1               191             -.0024375       -.0024375
*        0.              0.              THRU            200
$ Pressure Loads of Load Set : Pression2
PLOAD4   3       401     .0125   .0125  .0124688.0124688 THRU    410
PLOAD4   3       411    .0124688.0124688 .012375 .012375 THRU    420
PLOAD4   3       421     .012375 .012375.0122188.0122188 THRU    430
PLOAD4   3       431    .0122188.0122188 .012    .012    THRU    440
PLOAD4   3       441     .012    .012   .0117188.0117188 THRU    450
PLOAD4   3       451    .0117188.0117188 .011375 .011375 THRU    460
PLOAD4   3       461     .011375 .011375.0109688.0109688 THRU    470
PLOAD4   3       471    .0109688.0109688 .0105   .0105
PLOAD4   3       472    .0109688.0109688 .0105   .0105   THRU    474
PLOAD4   3       475    .0109688.0109688 .0105   .0105
PLOAD4   3       476    .0109688.0109688 .0105   .0105   THRU    480
PLOAD4   3       481     .0105   .0105  .0099688.0099687
PLOAD4   3       482     .0105   .0105  .0099688.0099688 THRU    484
PLOAD4   3       485     .0105   .0105  .0099688.0099688
PLOAD4   3       486     .0105   .0105  .0099688.0099688 THRU    487
PLOAD4   3       488     .0105   .0105  .0099687.0099688
PLOAD4   3       489     .0105   .0105  .0099687.0099687 THRU    490
PLOAD4   3       491    .0099687.0099688 .009375 .009375
PLOAD4   3       492    .0099688.0099688 .009375 .009375 THRU    495
PLOAD4   3       496    .0099688.0099688 .009375 .009375
PLOAD4   3       497    .0099688.0099688 .009375 .009375
PLOAD4   3       498    .0099688.0099687 .009375 .009375
PLOAD4   3       499    .0099687.0099687 .009375 .009375 THRU    500
PLOAD4   3       501     .009375 .009375.0087188.0087188
PLOAD4   3       502     .009375 .009375.0087188.0087188 THRU    505
PLOAD4   3       506     .009375 .009375.0087188.0087188
PLOAD4   3       507     .009375 .009375.0087188.0087188 THRU    510
PLOAD4   3       511    .0087188.0087188 .008    .008    THRU    520
PLOAD4   3       521     .008    .008   .0072188.0072188 THRU    530
PLOAD4   3       531    .0072188.0072188 .006375 .006375 THRU    540
PLOAD4   3       541     .006375 .006375.0054687.0054687 THRU    550
PLOAD4   3       551    .0054687.0054687 .0045   .0045   THRU    560
PLOAD4   3       561     .0045   .0045  .0034687.0034687 THRU    570
PLOAD4   3       571    .0034687.0034687 .002375 .002375 THRU    580
PLOAD4   3       581     .002375 .002375.0012187.0012187 THRU    590
PLOAD4   3       591    .0012187.0012187 0.      0.      THRU    600
$ Referenced Coordinate Frames
ENDDATA 8d3b6e9a
