CEND
BEGIN BULK
MAT1    1       69000.000000    0.000000        0.330000        
PSHELL  1       1       2.100000        
CQUAD4  1       1       158     159     204     203     0.0     0.0     
CQUAD4  2       1       203     204     249     248     0.0     0.0     
CQUAD4  3       1       248     249     294     293     0.0     0.0     
CQUAD4  4       1       293     294     338     337     0.0     0.0     
CQUAD4  5       1       337     338     382     381     0.0     0.0     
CQUAD4  6       1       381     382     426     425     0.0     0.0     
CQUAD4  7       1       425     426     469     468     0.0     0.0     
CQUAD4  8       1       468     469     512     511     0.0     0.0     
CQUAD4  9       1       511     512     555     554     0.0     0.0     
CQUAD4  10      1       554     555     598     597     0.0     0.0     
CQUAD4  11      1       597     598     640     639     0.0     0.0     
CQUAD4  12      1       639     640     682     681     0.0     0.0     
CQUAD4  13      1       681     682     724     723     0.0     0.0     
CQUAD4  14      1       723     724     765     764     0.0     0.0     
CQUAD4  15      1       764     765     806     805     0.0     0.0     
CQUAD4  16      1       805     806     847     846     0.0     0.0     
CQUAD4  17      1       846     847     888     887     0.0     0.0     
CQUAD4  18      1       887     888     928     927     0.0     0.0     
CQUAD4  19      1       927     928     968     967     0.0     0.0     
CQUAD4  20      1       967     968     1008    1007    0.0     0.0     
$ ... 3002 like lines cut
ENDDATA
