CEND
BEGIN BULK
MAT1    1       69000.000000    0.000000        0.330000        
PSHELL  1       1       2.100000        
CQUAD4  1       1       3200    3201    1       3218    0.0     0.0     
CQUAD4  2       1       3218    1       3203    3217    0.0     0.0     
CQUAD4  3       1       3132    3133    2       3219    0.0     0.0     
CQUAD4  4       1       3219    2       3135    3150    0.0     0.0     
CQUAD4  5       1       3150    3135    3152    3167    0.0     0.0     
CQUAD4  6       1       3167    3152    3169    3184    0.0     0.0     
CQUAD4  7       1       3184    3169    3186    3201    0.0     0.0     
CQUAD4  8       1       3078    3079    3       3220    0.0     0.0     
CQUAD4  9       1       3220    3       3081    3097    0.0     0.0     
CQUAD4  10      1       3097    3081    3099    3115    0.0     0.0     
CQUAD4  11      1       3115    3099    3117    3133    0.0     0.0     
CQUAD4  12      1       3021    3022    4       3221    0.0     0.0     
CQUAD4  13      1       3221    4       3024    3041    0.0     0.0     
CQUAD4  14      1       3041    3024    3043    3060    0.0     0.0     
CQUAD4  15      1       3060    3043    3062    3079    0.0     0.0     
CQUAD4  16      1       2941    2942    5       3222    0.0     0.0     
CQUAD4  17      1       3222    5       2944    2962    0.0     0.0     
CQUAD4  18      1       2962    2944    2964    2982    0.0     0.0     
CQUAD4  19      1       2982    2964    2984    3002    0.0     0.0     
CQUAD4  20      1       3002    2984    3004    3022    0.0     0.0     
$ ... 240 like lines cut
ENDDATA
