CEND
BEGIN BULK
MAT1    1       69000.000000    0.000000        0.330000        
PSHELL  1       1       2.100000        
CQUAD4  1       1       58      60      82      80      0.0     0.0     
CQUAD4  2       1       80      82      103     101     0.0     0.0     
CQUAD4  3       1       101     103     124     122     0.0     0.0     
CQUAD4  4       1       122     124     145     143     0.0     0.0     
CQUAD4  5       1       143     145     165     163     0.0     0.0     
CQUAD4  6       1       163     165     185     183     0.0     0.0     
CQUAD4  7       1       183     185     205     203     0.0     0.0     
CQUAD4  8       1       203     205     224     222     0.0     0.0     
CQUAD4  9       1       222     224     243     241     0.0     0.0     
CQUAD4  10      1       241     243     262     260     0.0     0.0     
CQUAD4  11      1       260     262     280     278     0.0     0.0     
CQUAD4  12      1       278     280     298     296     0.0     0.0     
CQUAD4  13      1       296     298     316     314     0.0     0.0     
CQUAD4  14      1       314     316     333     331     0.0     0.0     
CQUAD4  15      1       331     333     350     348     0.0     0.0     
CQUAD4  16      1       348     350     367     365     0.0     0.0     
CQUAD4  17      1       365     367     383     381     0.0     0.0     
CQUAD4  18      1       381     383     399     397     0.0     0.0     
CQUAD4  19      1       397     399     415     413     0.0     0.0     
CQUAD4  20      1       413     415     430     428     0.0     0.0     
$ ... 1994 like lines cut
ENDDATA
