$ MSC.Nastran input file created by MATLAB
$ Patran-compatible CROD element definition

CEND
BEGIN BULK

$ Referenced Material Records
$ Material Record: Aluminum_7075_T6
MAT1    1       71700.000000    0.000000        0.330000        

$ Elements and Element Properties for region: Aluminum_7075_T6
PROD    1       1       0.036000        
$ Pset: "Aluminum_7075_T6" will be imported as: "prod.1"

CROD    1       1       1       2       

$ Nodes of the Entire Model
GRID    1               0.      0.      0.
GRID    2               1.      0.      0.

$ Loads for Load Case: Default
$ Displacement Constraints of Load Set: BC
SPC1    1       123     1

$ Nodal Forces of Load Set: F1
FORCE   1       2       0       1.      1.      0.      0.

ENDDATA
