CEND
BEGIN BULK
MAT1    1       69000.000000    0.000000        0.330000        
PROD    1       1       0.010000        
CROD    1       1       3265    3312    
CROD    2       1       3312    3359    
CROD    3       1       3359    3406    
CROD    4       1       3406    3453    
CROD    5       1       3453    3500    
CROD    6       1       3500    3547    
CROD    7       1       3547    3594    
CROD    8       1       3594    3641    
CROD    9       1       3641    3688    
CROD    10      1       3688    3735    
CROD    11      1       3735    3782    
CROD    12      1       3782    3829    
CROD    13      1       3829    3876    
CROD    14      1       3876    3923    
CROD    15      1       3923    3970    
CROD    16      1       3970    188     
CROD    17      1       188     233     
CROD    18      1       233     278     
CROD    19      1       278     322     
CROD    20      1       322     366     
$ ... 17521 like lines cut
ENDDATA
