CEND
BEGIN BULK
$ Material Record : mat1.1
$ Description of Material :
MAT1*   1       69000.          69000.          25939.8         
*       .33             2.7e-09         
PSHELL  1       1       2.100000        
CQUAD4  1       1       188     190     235     233     0.0     0.0     
CQUAD4  2       1       233     235     280     278     0.0     0.0     
CQUAD4  3       1       278     280     324     322     0.0     0.0     
CQUAD4  4       1       322     324     368     366     0.0     0.0     
CQUAD4  5       1       366     368     412     410     0.0     0.0     
CQUAD4  6       1       410     412     455     453     0.0     0.0     
CQUAD4  7       1       453     455     498     496     0.0     0.0     
CQUAD4  8       1       496     498     541     539     0.0     0.0     
CQUAD4  9       1       539     541     584     582     0.0     0.0     
CQUAD4  10      1       582     584     626     624     0.0     0.0     
CQUAD4  11      1       624     626     668     666     0.0     0.0     
CQUAD4  12      1       666     668     710     708     0.0     0.0     
CQUAD4  13      1       708     710     751     749     0.0     0.0     
CQUAD4  14      1       749     751     792     790     0.0     0.0     
CQUAD4  15      1       790     792     833     831     0.0     0.0     
CQUAD4  16      1       831     833     874     872     0.0     0.0     
CQUAD4  17      1       872     874     914     912     0.0     0.0     
CQUAD4  18      1       912     914     954     952     0.0     0.0     
CQUAD4  19      1       952     954     994     992     0.0     0.0     
CQUAD4  20      1       992     994     1033    1031    0.0     0.0     
$ ... 10005 like lines cut
ENDDATA
