CEND
BEGIN BULK
MAT1    1       69000.000000    0.000000        0.330000        
PSHELL  1       1       2.100000        
CTRIA3  1       1       152     150     38      0.0     0.0     
CTRIA3  2       1       120     118     45      0.0     0.0     
CTRIA3  3       1       95      93      52      0.0     0.0     
CTRIA3  4       1       77      75      59      0.0     0.0     
CTRIA3  5       1       3250    3248    66      0.0     0.0     
CTRIA3  6       1       4215    4213    4101    0.0     0.0     
CTRIA3  7       1       4183    4181    4108    0.0     0.0     
CTRIA3  8       1       4158    4156    4115    0.0     0.0     
CTRIA3  9       1       4140    4138    4122    0.0     0.0     
CTRIA3  10      1       7313    7311    4129    0.0     0.0     
ENDDATA
