CEND
BEGIN BULK
MAT1    2       73100000000.0000000.000000        0.330000        
PSHELL  1       1       0.031878        
CTRIA3  1       1       3265    6465    6450    0.0     0.0     
CTRIA3  2       1       3266    6397    6381    0.0     0.0     
CTRIA3  3       1       3267    6343    6326    0.0     0.0     
CTRIA3  4       1       3268    6286    6268    0.0     0.0     
CTRIA3  5       1       3269    6206    6187    0.0     0.0     
CTRIA3  6       1       3270    6143    6123    0.0     0.0     
CTRIA3  7       1       3271    6055    6034    0.0     0.0     
CTRIA3  8       1       3272    5986    5964    0.0     0.0     
CTRIA3  9       1       3273    5890    5867    0.0     0.0     
CTRIA3  10      1       3274    5815    5791    0.0     0.0     
CTRIA3  11      1       3275    5737    5712    0.0     0.0     
CTRIA3  12      1       3276    5629    5603    0.0     0.0     
CTRIA3  13      1       3277    5545    5518    0.0     0.0     
CTRIA3  14      1       3278    5429    5401    0.0     0.0     
CTRIA3  15      1       3279    5339    5310    0.0     0.0     
CTRIA3  16      1       3280    5215    5185    0.0     0.0     
CTRIA3  17      1       3281    5119    5088    0.0     0.0     
CTRIA3  18      1       3282    5020    4988    0.0     0.0     
CTRIA3  19      1       3283    4884    4851    0.0     0.0     
CTRIA3  20      1       3284    4779    4745    0.0     0.0     
$ ... 16 like lines cut
ENDDATA
