CEND
BEGIN BULK
$ Material Record : mat1.1
$ Description of Material :
MAT1*   1       69000.          69000.          25939.8         
*       .33             2.7e-09         
PSHELL  1       1       2.100000        
CQUAD4  1       1       183     185     226     224     0.0     0.0     
CQUAD4  2       1       224     226     266     264     0.0     0.0     
CQUAD4  3       1       264     266     306     304     0.0     0.0     
CQUAD4  4       1       304     306     346     344     0.0     0.0     
CQUAD4  5       1       344     346     385     383     0.0     0.0     
CQUAD4  6       1       383     385     424     422     0.0     0.0     
CQUAD4  7       1       422     424     463     461     0.0     0.0     
CQUAD4  8       1       461     463     501     499     0.0     0.0     
CQUAD4  9       1       499     501     539     537     0.0     0.0     
CQUAD4  10      1       537     539     577     575     0.0     0.0     
CQUAD4  11      1       575     577     614     612     0.0     0.0     
CQUAD4  12      1       612     614     651     649     0.0     0.0     
CQUAD4  13      1       649     651     688     686     0.0     0.0     
CQUAD4  14      1       686     688     724     722     0.0     0.0     
CQUAD4  15      1       722     724     760     758     0.0     0.0     
CQUAD4  16      1       758     760     796     794     0.0     0.0     
CQUAD4  17      1       794     796     831     829     0.0     0.0     
CQUAD4  18      1       829     831     866     864     0.0     0.0     
CQUAD4  19      1       864     866     900     898     0.0     0.0     
CQUAD4  20      1       898     900     934     932     0.0     0.0     
$ ... 152 like lines cut
ENDDATA
